* NGSPICE file created from viterbi_decoder.ext - technology: sky130A

* Black-box entry subcircuit for sky130_ef_sc_hd__decap_12 abstract view
.subckt sky130_ef_sc_hd__decap_12 VPWR VGND VPB VNB
.ends

* Black-box entry subcircuit for sky130_fd_sc_hd__fill_1 abstract view
.subckt sky130_fd_sc_hd__fill_1 VGND VNB VPB VPWR
.ends

* Black-box entry subcircuit for sky130_fd_sc_hd__tapvpwrvgnd_1 abstract view
.subckt sky130_fd_sc_hd__tapvpwrvgnd_1 VGND VPWR
.ends

* Black-box entry subcircuit for sky130_fd_sc_hd__decap_4 abstract view
.subckt sky130_fd_sc_hd__decap_4 VGND VNB VPB VPWR
.ends

* Black-box entry subcircuit for sky130_fd_sc_hd__dfrtp_1 abstract view
.subckt sky130_fd_sc_hd__dfrtp_1 CLK D RESET_B VGND VNB VPB VPWR Q
.ends

* Black-box entry subcircuit for sky130_fd_sc_hd__nor3b_2 abstract view
.subckt sky130_fd_sc_hd__nor3b_2 A B C_N VGND VNB VPB VPWR Y
.ends

* Black-box entry subcircuit for sky130_fd_sc_hd__decap_6 abstract view
.subckt sky130_fd_sc_hd__decap_6 VGND VNB VPB VPWR
.ends

* Black-box entry subcircuit for sky130_fd_sc_hd__nor2_1 abstract view
.subckt sky130_fd_sc_hd__nor2_1 A B VGND VNB VPB VPWR Y
.ends

* Black-box entry subcircuit for sky130_fd_sc_hd__inv_2 abstract view
.subckt sky130_fd_sc_hd__inv_2 A VGND VNB VPB VPWR Y
.ends

* Black-box entry subcircuit for sky130_fd_sc_hd__clkbuf_8 abstract view
.subckt sky130_fd_sc_hd__clkbuf_8 A VGND VNB VPB VPWR X
.ends

* Black-box entry subcircuit for sky130_fd_sc_hd__or2_1 abstract view
.subckt sky130_fd_sc_hd__or2_1 A B VGND VNB VPB VPWR X
.ends

* Black-box entry subcircuit for sky130_fd_sc_hd__fill_2 abstract view
.subckt sky130_fd_sc_hd__fill_2 VGND VNB VPB VPWR
.ends

* Black-box entry subcircuit for sky130_fd_sc_hd__o31a_1 abstract view
.subckt sky130_fd_sc_hd__o31a_1 A1 A2 A3 B1 VGND VNB VPB VPWR X
.ends

* Black-box entry subcircuit for sky130_fd_sc_hd__decap_3 abstract view
.subckt sky130_fd_sc_hd__decap_3 VGND VNB VPB VPWR
.ends

* Black-box entry subcircuit for sky130_fd_sc_hd__xor2_1 abstract view
.subckt sky130_fd_sc_hd__xor2_1 A B VGND VNB VPB VPWR X
.ends

* Black-box entry subcircuit for sky130_fd_sc_hd__nand2_1 abstract view
.subckt sky130_fd_sc_hd__nand2_1 A B VGND VNB VPB VPWR Y
.ends

* Black-box entry subcircuit for sky130_fd_sc_hd__dfrtp_4 abstract view
.subckt sky130_fd_sc_hd__dfrtp_4 CLK D RESET_B VGND VNB VPB VPWR Q
.ends

* Black-box entry subcircuit for sky130_fd_sc_hd__decap_8 abstract view
.subckt sky130_fd_sc_hd__decap_8 VGND VNB VPB VPWR
.ends

* Black-box entry subcircuit for sky130_fd_sc_hd__a221o_1 abstract view
.subckt sky130_fd_sc_hd__a221o_1 A1 A2 B1 B2 C1 VGND VNB VPB VPWR X
.ends

* Black-box entry subcircuit for sky130_fd_sc_hd__and2_1 abstract view
.subckt sky130_fd_sc_hd__and2_1 A B VGND VNB VPB VPWR X
.ends

* Black-box entry subcircuit for sky130_fd_sc_hd__mux2_1 abstract view
.subckt sky130_fd_sc_hd__mux2_1 A0 A1 S VGND VNB VPB VPWR X
.ends

* Black-box entry subcircuit for sky130_fd_sc_hd__nor3_2 abstract view
.subckt sky130_fd_sc_hd__nor3_2 A B C VGND VNB VPB VPWR Y
.ends

* Black-box entry subcircuit for sky130_fd_sc_hd__dlygate4sd3_1 abstract view
.subckt sky130_fd_sc_hd__dlygate4sd3_1 A VGND VNB VPB VPWR X
.ends

* Black-box entry subcircuit for sky130_fd_sc_hd__a22o_1 abstract view
.subckt sky130_fd_sc_hd__a22o_1 A1 A2 B1 B2 VGND VNB VPB VPWR X
.ends

* Black-box entry subcircuit for sky130_fd_sc_hd__buf_2 abstract view
.subckt sky130_fd_sc_hd__buf_2 A VGND VNB VPB VPWR X
.ends

* Black-box entry subcircuit for sky130_fd_sc_hd__dfxtp_1 abstract view
.subckt sky130_fd_sc_hd__dfxtp_1 CLK D VGND VNB VPB VPWR Q
.ends

* Black-box entry subcircuit for sky130_fd_sc_hd__and3b_1 abstract view
.subckt sky130_fd_sc_hd__and3b_1 A_N B C VGND VNB VPB VPWR X
.ends

* Black-box entry subcircuit for sky130_fd_sc_hd__and3_1 abstract view
.subckt sky130_fd_sc_hd__and3_1 A B C VGND VNB VPB VPWR X
.ends

* Black-box entry subcircuit for sky130_fd_sc_hd__or4b_4 abstract view
.subckt sky130_fd_sc_hd__or4b_4 A B C D_N VGND VNB VPB VPWR X
.ends

* Black-box entry subcircuit for sky130_fd_sc_hd__dfrtp_2 abstract view
.subckt sky130_fd_sc_hd__dfrtp_2 CLK D RESET_B VGND VNB VPB VPWR Q
.ends

* Black-box entry subcircuit for sky130_fd_sc_hd__a31o_1 abstract view
.subckt sky130_fd_sc_hd__a31o_1 A1 A2 A3 B1 VGND VNB VPB VPWR X
.ends

* Black-box entry subcircuit for sky130_fd_sc_hd__dfstp_1 abstract view
.subckt sky130_fd_sc_hd__dfstp_1 CLK D SET_B VGND VNB VPB VPWR Q
.ends

* Black-box entry subcircuit for sky130_fd_sc_hd__and3_2 abstract view
.subckt sky130_fd_sc_hd__and3_2 A B C VGND VNB VPB VPWR X
.ends

* Black-box entry subcircuit for sky130_fd_sc_hd__a31oi_4 abstract view
.subckt sky130_fd_sc_hd__a31oi_4 A1 A2 A3 B1 VGND VNB VPB VPWR Y
.ends

* Black-box entry subcircuit for sky130_fd_sc_hd__and2b_1 abstract view
.subckt sky130_fd_sc_hd__and2b_1 A_N B VGND VNB VPB VPWR X
.ends

* Black-box entry subcircuit for sky130_fd_sc_hd__dfstp_2 abstract view
.subckt sky130_fd_sc_hd__dfstp_2 CLK D SET_B VGND VNB VPB VPWR Q
.ends

* Black-box entry subcircuit for sky130_fd_sc_hd__nand2b_1 abstract view
.subckt sky130_fd_sc_hd__nand2b_1 A_N B VGND VNB VPB VPWR Y
.ends

* Black-box entry subcircuit for sky130_fd_sc_hd__a21o_1 abstract view
.subckt sky130_fd_sc_hd__a21o_1 A1 A2 B1 VGND VNB VPB VPWR X
.ends

* Black-box entry subcircuit for sky130_fd_sc_hd__o21a_1 abstract view
.subckt sky130_fd_sc_hd__o21a_1 A1 A2 B1 VGND VNB VPB VPWR X
.ends

* Black-box entry subcircuit for sky130_fd_sc_hd__and3b_4 abstract view
.subckt sky130_fd_sc_hd__and3b_4 A_N B C VGND VNB VPB VPWR X
.ends

* Black-box entry subcircuit for sky130_fd_sc_hd__nand3_1 abstract view
.subckt sky130_fd_sc_hd__nand3_1 A B C VGND VNB VPB VPWR Y
.ends

* Black-box entry subcircuit for sky130_fd_sc_hd__a21oi_1 abstract view
.subckt sky130_fd_sc_hd__a21oi_1 A1 A2 B1 VGND VNB VPB VPWR Y
.ends

* Black-box entry subcircuit for sky130_fd_sc_hd__or3_1 abstract view
.subckt sky130_fd_sc_hd__or3_1 A B C VGND VNB VPB VPWR X
.ends

* Black-box entry subcircuit for sky130_fd_sc_hd__and3b_2 abstract view
.subckt sky130_fd_sc_hd__and3b_2 A_N B C VGND VNB VPB VPWR X
.ends

* Black-box entry subcircuit for sky130_fd_sc_hd__nor2_2 abstract view
.subckt sky130_fd_sc_hd__nor2_2 A B VGND VNB VPB VPWR Y
.ends

* Black-box entry subcircuit for sky130_fd_sc_hd__or3b_1 abstract view
.subckt sky130_fd_sc_hd__or3b_1 A B C_N VGND VNB VPB VPWR X
.ends

* Black-box entry subcircuit for sky130_fd_sc_hd__inv_8 abstract view
.subckt sky130_fd_sc_hd__inv_8 A VGND VNB VPB VPWR Y
.ends

* Black-box entry subcircuit for sky130_fd_sc_hd__nand2_2 abstract view
.subckt sky130_fd_sc_hd__nand2_2 A B VGND VNB VPB VPWR Y
.ends

* Black-box entry subcircuit for sky130_fd_sc_hd__a211o_1 abstract view
.subckt sky130_fd_sc_hd__a211o_1 A1 A2 B1 C1 VGND VNB VPB VPWR X
.ends

* Black-box entry subcircuit for sky130_fd_sc_hd__inv_6 abstract view
.subckt sky130_fd_sc_hd__inv_6 A VGND VNB VPB VPWR Y
.ends

* Black-box entry subcircuit for sky130_fd_sc_hd__a221o_2 abstract view
.subckt sky130_fd_sc_hd__a221o_2 A1 A2 B1 B2 C1 VGND VNB VPB VPWR X
.ends

* Black-box entry subcircuit for sky130_fd_sc_hd__o21ai_1 abstract view
.subckt sky130_fd_sc_hd__o21ai_1 A1 A2 B1 VGND VNB VPB VPWR Y
.ends

* Black-box entry subcircuit for sky130_fd_sc_hd__mux4_1 abstract view
.subckt sky130_fd_sc_hd__mux4_1 A0 A1 A2 A3 S0 S1 VGND VNB VPB VPWR X
.ends

* Black-box entry subcircuit for sky130_fd_sc_hd__buf_4 abstract view
.subckt sky130_fd_sc_hd__buf_4 A VGND VNB VPB VPWR X
.ends

* Black-box entry subcircuit for sky130_fd_sc_hd__o21ai_2 abstract view
.subckt sky130_fd_sc_hd__o21ai_2 A1 A2 B1 VGND VNB VPB VPWR Y
.ends

* Black-box entry subcircuit for sky130_fd_sc_hd__o211a_1 abstract view
.subckt sky130_fd_sc_hd__o211a_1 A1 A2 B1 C1 VGND VNB VPB VPWR X
.ends

* Black-box entry subcircuit for sky130_fd_sc_hd__clkinv_4 abstract view
.subckt sky130_fd_sc_hd__clkinv_4 A VGND VNB VPB VPWR Y
.ends

* Black-box entry subcircuit for sky130_fd_sc_hd__a2bb2o_1 abstract view
.subckt sky130_fd_sc_hd__a2bb2o_1 A1_N A2_N B1 B2 VGND VNB VPB VPWR X
.ends

* Black-box entry subcircuit for sky130_fd_sc_hd__clkbuf_2 abstract view
.subckt sky130_fd_sc_hd__clkbuf_2 A VGND VNB VPB VPWR X
.ends

* Black-box entry subcircuit for sky130_fd_sc_hd__clkinvlp_4 abstract view
.subckt sky130_fd_sc_hd__clkinvlp_4 A VGND VNB VPB VPWR Y
.ends

* Black-box entry subcircuit for sky130_fd_sc_hd__or3_4 abstract view
.subckt sky130_fd_sc_hd__or3_4 A B C VGND VNB VPB VPWR X
.ends

* Black-box entry subcircuit for sky130_fd_sc_hd__clkbuf_16 abstract view
.subckt sky130_fd_sc_hd__clkbuf_16 A VGND VNB VPB VPWR X
.ends

* Black-box entry subcircuit for sky130_fd_sc_hd__clkbuf_4 abstract view
.subckt sky130_fd_sc_hd__clkbuf_4 A VGND VNB VPB VPWR X
.ends

* Black-box entry subcircuit for sky130_fd_sc_hd__clkinv_2 abstract view
.subckt sky130_fd_sc_hd__clkinv_2 A VGND VNB VPB VPWR Y
.ends

* Black-box entry subcircuit for sky130_fd_sc_hd__or4b_1 abstract view
.subckt sky130_fd_sc_hd__or4b_1 A B C D_N VGND VNB VPB VPWR X
.ends

* Black-box entry subcircuit for sky130_fd_sc_hd__xnor2_1 abstract view
.subckt sky130_fd_sc_hd__xnor2_1 A B VGND VNB VPB VPWR Y
.ends

* Black-box entry subcircuit for sky130_fd_sc_hd__a2bb2o_2 abstract view
.subckt sky130_fd_sc_hd__a2bb2o_2 A1_N A2_N B1 B2 VGND VNB VPB VPWR X
.ends

* Black-box entry subcircuit for sky130_fd_sc_hd__o22a_1 abstract view
.subckt sky130_fd_sc_hd__o22a_1 A1 A2 B1 B2 VGND VNB VPB VPWR X
.ends

* Black-box entry subcircuit for sky130_fd_sc_hd__o2bb2a_1 abstract view
.subckt sky130_fd_sc_hd__o2bb2a_1 A1_N A2_N B1 B2 VGND VNB VPB VPWR X
.ends

* Black-box entry subcircuit for sky130_fd_sc_hd__nand2_4 abstract view
.subckt sky130_fd_sc_hd__nand2_4 A B VGND VNB VPB VPWR Y
.ends

* Black-box entry subcircuit for sky130_fd_sc_hd__a22o_2 abstract view
.subckt sky130_fd_sc_hd__a22o_2 A1 A2 B1 B2 VGND VNB VPB VPWR X
.ends

* Black-box entry subcircuit for sky130_fd_sc_hd__xnor2_2 abstract view
.subckt sky130_fd_sc_hd__xnor2_2 A B VGND VNB VPB VPWR Y
.ends

* Black-box entry subcircuit for sky130_fd_sc_hd__buf_1 abstract view
.subckt sky130_fd_sc_hd__buf_1 A VGND VNB VPB VPWR X
.ends

* Black-box entry subcircuit for sky130_fd_sc_hd__bufinv_16 abstract view
.subckt sky130_fd_sc_hd__bufinv_16 A VGND VNB VPB VPWR Y
.ends

* Black-box entry subcircuit for sky130_fd_sc_hd__clkbuf_1 abstract view
.subckt sky130_fd_sc_hd__clkbuf_1 A VGND VNB VPB VPWR X
.ends

* Black-box entry subcircuit for sky130_fd_sc_hd__and4_4 abstract view
.subckt sky130_fd_sc_hd__and4_4 A B C D VGND VNB VPB VPWR X
.ends

* Black-box entry subcircuit for sky130_fd_sc_hd__a21bo_1 abstract view
.subckt sky130_fd_sc_hd__a21bo_1 A1 A2 B1_N VGND VNB VPB VPWR X
.ends

* Black-box entry subcircuit for sky130_fd_sc_hd__xor2_2 abstract view
.subckt sky130_fd_sc_hd__xor2_2 A B VGND VNB VPB VPWR X
.ends

* Black-box entry subcircuit for sky130_fd_sc_hd__or2_2 abstract view
.subckt sky130_fd_sc_hd__or2_2 A B VGND VNB VPB VPWR X
.ends

* Black-box entry subcircuit for sky130_fd_sc_hd__nor4_1 abstract view
.subckt sky130_fd_sc_hd__nor4_1 A B C D VGND VNB VPB VPWR Y
.ends

* Black-box entry subcircuit for sky130_fd_sc_hd__o32a_1 abstract view
.subckt sky130_fd_sc_hd__o32a_1 A1 A2 A3 B1 B2 VGND VNB VPB VPWR X
.ends

* Black-box entry subcircuit for sky130_fd_sc_hd__a32o_1 abstract view
.subckt sky130_fd_sc_hd__a32o_1 A1 A2 A3 B1 B2 VGND VNB VPB VPWR X
.ends

* Black-box entry subcircuit for sky130_fd_sc_hd__o22ai_1 abstract view
.subckt sky130_fd_sc_hd__o22ai_1 A1 A2 B1 B2 VGND VNB VPB VPWR Y
.ends

* Black-box entry subcircuit for sky130_fd_sc_hd__nand4_1 abstract view
.subckt sky130_fd_sc_hd__nand4_1 A B C D VGND VNB VPB VPWR Y
.ends

* Black-box entry subcircuit for sky130_fd_sc_hd__o211ai_1 abstract view
.subckt sky130_fd_sc_hd__o211ai_1 A1 A2 B1 C1 VGND VNB VPB VPWR Y
.ends

* Black-box entry subcircuit for sky130_fd_sc_hd__and4b_1 abstract view
.subckt sky130_fd_sc_hd__and4b_1 A_N B C D VGND VNB VPB VPWR X
.ends

* Black-box entry subcircuit for sky130_fd_sc_hd__and4bb_4 abstract view
.subckt sky130_fd_sc_hd__and4bb_4 A_N B_N C D VGND VNB VPB VPWR X
.ends

* Black-box entry subcircuit for sky130_fd_sc_hd__o22ai_2 abstract view
.subckt sky130_fd_sc_hd__o22ai_2 A1 A2 B1 B2 VGND VNB VPB VPWR Y
.ends

.subckt viterbi_decoder VGND VPWR clk data[0] data[10] data[11] data[12] data[13]
+ data[14] data[15] data[1] data[2] data[3] data[4] data[5] data[6] data[7] data[8]
+ data[9] data_out[0] data_out[1] data_out[2] data_out[3] data_out[4] data_out[5]
+ data_out[6] data_out[7] done_flag en rst
XFILLER_54_225 VPWR VGND VPWR VGND sky130_ef_sc_hd__decap_12
XFILLER_39_299 VGND VGND VPWR VPWR sky130_fd_sc_hd__fill_1
XTAP_TAPCELL_ROW_52_404 VGND VPWR sky130_fd_sc_hd__tapvpwrvgnd_1
XFILLER_52_29 VPWR VGND VPWR VGND sky130_ef_sc_hd__decap_12
XFILLER_13_111 VGND VGND VPWR VPWR sky130_fd_sc_hd__fill_1
XFILLER_26_85 VPWR VGND VPWR VGND sky130_ef_sc_hd__decap_12
XFILLER_36_247 VGND VGND VPWR VPWR sky130_fd_sc_hd__decap_4
X_1270_ clknet_4_10_0_clk _0282_ _0152_ VGND VGND VPWR VPWR mem1.trellis_diagr\[10\]\[1\]
+ sky130_fd_sc_hd__dfrtp_1
XTAP_TAPCELL_ROW_14_194 VGND VPWR sky130_fd_sc_hd__tapvpwrvgnd_1
X_0985_ mem1.trace\[2\] net41 mem1.trace\[0\] VGND VGND VPWR VPWR _0555_ sky130_fd_sc_hd__nor3b_2
XFILLER_27_225 VGND VGND VPWR VPWR sky130_fd_sc_hd__fill_1
XFILLER_33_217 VGND VGND VPWR VPWR sky130_fd_sc_hd__decap_6
XFILLER_26_291 VGND VGND VPWR VPWR sky130_fd_sc_hd__fill_1
X_0770_ net38 _0377_ VGND VGND VPWR VPWR _0379_ sky130_fd_sc_hd__nor2_1
X_1322_ clknet_4_13_0_clk _0204_ _0038_ VGND VGND VPWR VPWR c1.count\[0\] sky130_fd_sc_hd__dfrtp_1
X_1253_ clknet_4_8_0_clk _0265_ _0135_ VGND VGND VPWR VPWR mem1.trellis_diagr\[29\]\[0\]
+ sky130_fd_sc_hd__dfrtp_1
X_1184_ net63 VGND VGND VPWR VPWR _0066_ sky130_fd_sc_hd__inv_2
XTAP_TAPCELL_ROW_19_220 VGND VPWR sky130_fd_sc_hd__tapvpwrvgnd_1
Xclkbuf_4_12_0_clk clknet_0_clk VGND VGND VPWR VPWR clknet_4_12_0_clk sky130_fd_sc_hd__clkbuf_8
X_0968_ br1.data_rx\[0\] br1.data_rx\[1\] VGND VGND VPWR VPWR _0547_ sky130_fd_sc_hd__or2_1
XFILLER_32_250 VGND VGND VPWR VPWR sky130_fd_sc_hd__fill_2
X_0899_ _0469_ _0489_ _0495_ add1.en_add VGND VGND VPWR VPWR _0497_ sky130_fd_sc_hd__o31a_1
XTAP_TAPCELL_ROW_25_256 VGND VPWR sky130_fd_sc_hd__tapvpwrvgnd_1
XFILLER_23_42 VPWR VGND VPWR VGND sky130_ef_sc_hd__decap_12
XFILLER_23_86 VPWR VGND VPWR VGND sky130_ef_sc_hd__decap_12
XFILLER_2_165 VGND VGND VPWR VPWR sky130_fd_sc_hd__decap_3
XFILLER_2_121 VPWR VGND VPWR VGND sky130_ef_sc_hd__decap_12
XFILLER_0_57 VPWR VGND VPWR VGND sky130_ef_sc_hd__decap_12
XFILLER_17_9 VPWR VGND VPWR VGND sky130_ef_sc_hd__decap_12
X_0822_ add1.sum_00\[4\] _0425_ VGND VGND VPWR VPWR _0426_ sky130_fd_sc_hd__xor2_1
XFILLER_9_55 VGND VGND VPWR VPWR sky130_fd_sc_hd__fill_1
XFILLER_50_3 VPWR VGND VPWR VGND sky130_ef_sc_hd__decap_12
X_0684_ _0351_ VGND VGND VPWR VPWR _0352_ sky130_fd_sc_hd__inv_2
X_0753_ add1.sum_11\[1\] add1.hamd_4\[1\] VGND VGND VPWR VPWR _0362_ sky130_fd_sc_hd__nand2_1
X_1236_ clknet_4_7_0_clk _0249_ _0118_ VGND VGND VPWR VPWR add1.sum_10\[2\] sky130_fd_sc_hd__dfrtp_4
X_1305_ clknet_4_12_0_clk _0187_ _0029_ VGND VGND VPWR VPWR mem1.trellis_diagr\[20\]\[1\]
+ sky130_fd_sc_hd__dfrtp_1
X_1167_ net64 VGND VGND VPWR VPWR _0049_ sky130_fd_sc_hd__inv_2
X_1098_ net56 VGND VGND VPWR VPWR _0138_ sky130_fd_sc_hd__inv_2
XTAP_TAPCELL_ROW_22_237 VGND VPWR sky130_fd_sc_hd__tapvpwrvgnd_1
XTAP_TAPCELL_ROW_30_281 VGND VPWR sky130_fd_sc_hd__tapvpwrvgnd_1
XFILLER_43_323 VGND VGND VPWR VPWR sky130_fd_sc_hd__fill_2
XFILLER_18_97 VGND VGND VPWR VPWR sky130_fd_sc_hd__decap_6
XFILLER_11_275 VGND VGND VPWR VPWR sky130_fd_sc_hd__fill_2
XFILLER_15_6 VGND VGND VPWR VPWR sky130_fd_sc_hd__decap_8
XFILLER_46_150 VPWR VGND VPWR VGND sky130_ef_sc_hd__decap_12
XTAP_TAPCELL_ROW_44_362 VGND VPWR sky130_fd_sc_hd__tapvpwrvgnd_1
XTAP_TAPCELL_ROW_36_318 VGND VPWR sky130_fd_sc_hd__tapvpwrvgnd_1
X_1021_ mem1.trellis_diagr\[4\]\[0\] _0353_ net33 mem1.trellis_diagr\[1\]\[0\] _0354_
+ VGND VGND VPWR VPWR _0585_ sky130_fd_sc_hd__a221o_1
X_0805_ add1.sum_01\[2\] net37 VGND VGND VPWR VPWR _0412_ sky130_fd_sc_hd__and2_1
X_0598_ net165 c1.state\[3\] net17 VGND VGND VPWR VPWR _0236_ sky130_fd_sc_hd__mux2_1
X_0667_ mem1.count\[2\] _0308_ _0312_ VGND VGND VPWR VPWR _0345_ sky130_fd_sc_hd__nor3_2
X_0736_ net109 add1.prv_st_01\[0\] _0359_ VGND VGND VPWR VPWR _0273_ sky130_fd_sc_hd__mux2_1
X_1219_ clknet_4_10_0_clk _0004_ _0101_ VGND VGND VPWR VPWR tbck1.select_node\[1\]
+ sky130_fd_sc_hd__dfrtp_1
XFILLER_52_197 VGND VGND VPWR VPWR sky130_fd_sc_hd__decap_4
XFILLER_52_120 VPWR VGND VPWR VGND sky130_ef_sc_hd__decap_12
XFILLER_40_315 VGND VGND VPWR VPWR sky130_fd_sc_hd__fill_1
XFILLER_20_76 VGND VGND VPWR VPWR sky130_fd_sc_hd__decap_8
Xhold74 mem1.trellis_diagr\[29\]\[0\] VGND VGND VPWR VPWR net139 sky130_fd_sc_hd__dlygate4sd3_1
Xhold41 mem1.trellis_diagr\[31\]\[0\] VGND VGND VPWR VPWR net106 sky130_fd_sc_hd__dlygate4sd3_1
Xhold63 bck_prv_st_01\[1\] VGND VGND VPWR VPWR net128 sky130_fd_sc_hd__dlygate4sd3_1
Xhold52 mem1.trellis_diagr\[15\]\[1\] VGND VGND VPWR VPWR net117 sky130_fd_sc_hd__dlygate4sd3_1
Xhold30 mem1.trellis_diagr\[4\]\[0\] VGND VGND VPWR VPWR net95 sky130_fd_sc_hd__dlygate4sd3_1
XFILLER_29_96 VPWR VGND VPWR VGND sky130_ef_sc_hd__decap_12
XFILLER_43_120 VGND VGND VPWR VPWR sky130_fd_sc_hd__fill_1
XFILLER_35_109 VGND VGND VPWR VPWR sky130_fd_sc_hd__decap_3
Xhold96 mem1.trellis_diagr\[26\]\[0\] VGND VGND VPWR VPWR net161 sky130_fd_sc_hd__dlygate4sd3_1
Xhold85 mem1.trellis_diagr\[24\]\[1\] VGND VGND VPWR VPWR net150 sky130_fd_sc_hd__dlygate4sd3_1
XFILLER_16_312 VPWR VGND VPWR VGND sky130_ef_sc_hd__decap_12
XTAP_TAPCELL_ROW_41_343 VGND VPWR sky130_fd_sc_hd__tapvpwrvgnd_1
XFILLER_3_293 VPWR VGND VPWR VGND sky130_ef_sc_hd__decap_12
XFILLER_19_150 VGND VGND VPWR VPWR sky130_fd_sc_hd__fill_2
XFILLER_34_186 VGND VGND VPWR VPWR sky130_fd_sc_hd__fill_1
X_1004_ mem1.trellis_diagr\[17\]\[1\] net33 _0556_ mem1.trellis_diagr\[22\]\[1\] VGND
+ VGND VPWR VPWR _0571_ sky130_fd_sc_hd__a22o_1
X_0719_ net44 net163 _0361_ VGND VGND VPWR VPWR _0290_ sky130_fd_sc_hd__mux2_1
XFILLER_40_112 VGND VGND VPWR VPWR sky130_fd_sc_hd__decap_8
XFILLER_15_43 VPWR VGND VPWR VGND sky130_ef_sc_hd__decap_12
Xoutput20 net20 VGND VGND VPWR VPWR data_out[1] sky130_fd_sc_hd__buf_2
XFILLER_31_167 VGND VGND VPWR VPWR sky130_fd_sc_hd__fill_1
XFILLER_16_153 VGND VGND VPWR VPWR sky130_fd_sc_hd__decap_8
XFILLER_16_197 VGND VGND VPWR VPWR sky130_fd_sc_hd__fill_1
XFILLER_54_237 VPWR VGND VPWR VGND sky130_ef_sc_hd__decap_12
XTAP_TAPCELL_ROW_52_405 VGND VPWR sky130_fd_sc_hd__tapvpwrvgnd_1
XFILLER_10_307 VGND VGND VPWR VPWR sky130_fd_sc_hd__fill_1
XFILLER_9_105 VGND VGND VPWR VPWR sky130_fd_sc_hd__decap_6
XFILLER_26_42 VGND VGND VPWR VPWR sky130_fd_sc_hd__decap_3
XFILLER_26_97 VGND VGND VPWR VPWR sky130_fd_sc_hd__decap_6
XTAP_TAPCELL_ROW_8_160 VGND VPWR sky130_fd_sc_hd__tapvpwrvgnd_1
XFILLER_3_57 VPWR VGND VPWR VGND sky130_ef_sc_hd__decap_12
XFILLER_36_259 VGND VGND VPWR VPWR sky130_fd_sc_hd__fill_1
X_0984_ mem1.trellis_diagr\[24\]\[0\] net35 _0553_ mem1.trellis_diagr\[31\]\[0\] VGND
+ VGND VPWR VPWR _0554_ sky130_fd_sc_hd__a22o_1
XTAP_TAPCELL_ROW_14_195 VGND VPWR sky130_fd_sc_hd__tapvpwrvgnd_1
XFILLER_42_229 VPWR VGND VPWR VGND sky130_ef_sc_hd__decap_12
XFILLER_35_281 VGND VGND VPWR VPWR sky130_fd_sc_hd__decap_6
XFILLER_53_51 VGND VGND VPWR VPWR sky130_fd_sc_hd__decap_4
XTAP_TAPCELL_ROW_11_176 VGND VPWR sky130_fd_sc_hd__tapvpwrvgnd_1
X_1252_ clknet_4_10_0_clk _0264_ _0134_ VGND VGND VPWR VPWR mem1.trellis_diagr\[16\]\[1\]
+ sky130_fd_sc_hd__dfrtp_1
X_1321_ clknet_4_11_0_clk _0203_ VGND VGND VPWR VPWR bck_prv_st_00\[1\] sky130_fd_sc_hd__dfxtp_1
XTAP_TAPCELL_ROW_19_221 VGND VPWR sky130_fd_sc_hd__tapvpwrvgnd_1
X_1183_ net63 VGND VGND VPWR VPWR _0065_ sky130_fd_sc_hd__inv_2
X_0967_ br1.data_rx\[1\] _0338_ net175 VGND VGND VPWR VPWR _0017_ sky130_fd_sc_hd__and3b_1
X_0898_ _0480_ _0495_ VGND VGND VPWR VPWR _0496_ sky130_fd_sc_hd__nand2_1
XPHY_EDGE_ROW_12_Right_12 VGND VGND VPWR VPWR sky130_fd_sc_hd__decap_3
XPHY_EDGE_ROW_21_Right_21 VGND VGND VPWR VPWR sky130_fd_sc_hd__decap_3
XFILLER_23_54 VGND VGND VPWR VPWR sky130_fd_sc_hd__fill_2
XTAP_TAPCELL_ROW_25_257 VGND VPWR sky130_fd_sc_hd__tapvpwrvgnd_1
XFILLER_23_65 VGND VGND VPWR VPWR sky130_fd_sc_hd__fill_1
XFILLER_23_98 VGND VGND VPWR VPWR sky130_fd_sc_hd__fill_1
XPHY_EDGE_ROW_30_Right_30 VGND VGND VPWR VPWR sky130_fd_sc_hd__decap_3
XFILLER_2_133 VGND VGND VPWR VPWR sky130_fd_sc_hd__decap_6
XFILLER_0_69 VPWR VGND VPWR VGND sky130_ef_sc_hd__decap_12
X_0821_ add1.sum_00\[3\] add1.sum_00\[2\] _0424_ VGND VGND VPWR VPWR _0425_ sky130_fd_sc_hd__and3_1
X_0752_ net77 add1.prv_st_10\[0\] _0360_ VGND VGND VPWR VPWR _0257_ sky130_fd_sc_hd__mux2_1
XFILLER_43_3 VPWR VGND VPWR VGND sky130_ef_sc_hd__decap_12
X_0683_ mem1.count\[2\] _0310_ _0348_ mem1.count\[3\] VGND VGND VPWR VPWR _0351_ sky130_fd_sc_hd__or4b_4
X_1166_ net64 VGND VGND VPWR VPWR _0048_ sky130_fd_sc_hd__inv_2
X_1235_ clknet_4_7_0_clk _0248_ _0117_ VGND VGND VPWR VPWR add1.sum_10\[1\] sky130_fd_sc_hd__dfrtp_2
X_1304_ clknet_4_9_0_clk _0186_ _0028_ VGND VGND VPWR VPWR mem1.trellis_diagr\[20\]\[0\]
+ sky130_fd_sc_hd__dfrtp_1
X_1097_ net49 VGND VGND VPWR VPWR _0137_ sky130_fd_sc_hd__inv_2
XFILLER_20_221 VGND VGND VPWR VPWR sky130_fd_sc_hd__decap_8
XTAP_TAPCELL_ROW_22_238 VGND VPWR sky130_fd_sc_hd__tapvpwrvgnd_1
XTAP_TAPCELL_ROW_30_282 VGND VPWR sky130_fd_sc_hd__tapvpwrvgnd_1
XFILLER_43_302 VGND VGND VPWR VPWR sky130_fd_sc_hd__fill_1
XFILLER_50_41 VGND VGND VPWR VPWR sky130_fd_sc_hd__decap_8
XFILLER_7_225 VGND VGND VPWR VPWR sky130_fd_sc_hd__fill_1
XFILLER_11_221 VGND VGND VPWR VPWR sky130_fd_sc_hd__decap_3
Xclkbuf_4_11_0_clk clknet_0_clk VGND VGND VPWR VPWR clknet_4_11_0_clk sky130_fd_sc_hd__clkbuf_8
X_1020_ mem1.trellis_diagr\[3\]\[0\] _0552_ _0553_ mem1.trellis_diagr\[7\]\[0\] VGND
+ VGND VPWR VPWR _0584_ sky130_fd_sc_hd__a22o_1
XFILLER_46_162 VPWR VGND VPWR VGND sky130_ef_sc_hd__decap_12
X_0804_ net31 _0410_ _0411_ _0380_ VGND VGND VPWR VPWR _0255_ sky130_fd_sc_hd__a31o_1
X_0735_ net116 net43 _0359_ VGND VGND VPWR VPWR _0274_ sky130_fd_sc_hd__mux2_1
X_0666_ net17 net74 VGND VGND VPWR VPWR _0204_ sky130_fd_sc_hd__xor2_1
X_0597_ net46 VGND VGND VPWR VPWR _0071_ sky130_fd_sc_hd__inv_2
XFILLER_52_132 VGND VGND VPWR VPWR sky130_fd_sc_hd__decap_3
X_1149_ net59 VGND VGND VPWR VPWR _0031_ sky130_fd_sc_hd__inv_2
XFILLER_37_151 VPWR VGND VPWR VGND sky130_ef_sc_hd__decap_12
X_1218_ clknet_4_11_0_clk _0003_ _0100_ VGND VGND VPWR VPWR tbck1.select_node\[0\]
+ sky130_fd_sc_hd__dfstp_1
XFILLER_4_239 VGND VGND VPWR VPWR sky130_fd_sc_hd__fill_2
Xhold20 _0226_ VGND VGND VPWR VPWR net85 sky130_fd_sc_hd__dlygate4sd3_1
Xhold42 tbck1.sel_bit_out\[1\] VGND VGND VPWR VPWR net107 sky130_fd_sc_hd__dlygate4sd3_1
Xhold64 mem1.trellis_diagr\[2\]\[0\] VGND VGND VPWR VPWR net129 sky130_fd_sc_hd__dlygate4sd3_1
Xhold75 mem1.trellis_diagr\[12\]\[1\] VGND VGND VPWR VPWR net140 sky130_fd_sc_hd__dlygate4sd3_1
Xhold97 mem1.trellis_diagr\[26\]\[1\] VGND VGND VPWR VPWR net162 sky130_fd_sc_hd__dlygate4sd3_1
Xhold86 mem1.trellis_diagr\[25\]\[1\] VGND VGND VPWR VPWR net151 sky130_fd_sc_hd__dlygate4sd3_1
Xhold53 mem1.trellis_diagr\[12\]\[0\] VGND VGND VPWR VPWR net118 sky130_fd_sc_hd__dlygate4sd3_1
Xhold31 mem1.trellis_diagr\[21\]\[1\] VGND VGND VPWR VPWR net96 sky130_fd_sc_hd__dlygate4sd3_1
XFILLER_29_53 VGND VGND VPWR VPWR sky130_fd_sc_hd__decap_3
XFILLER_16_324 VGND VGND VPWR VPWR sky130_fd_sc_hd__fill_1
XFILLER_28_195 VGND VGND VPWR VPWR sky130_fd_sc_hd__fill_1
XTAP_TAPCELL_ROW_41_344 VGND VPWR sky130_fd_sc_hd__tapvpwrvgnd_1
X_1003_ mem1.trellis_diagr\[18\]\[1\] net34 _0552_ mem1.trellis_diagr\[19\]\[1\] VGND
+ VGND VPWR VPWR _0570_ sky130_fd_sc_hd__a22o_1
XFILLER_34_154 VPWR VGND VPWR VGND sky130_ef_sc_hd__decap_12
XFILLER_22_305 VGND VGND VPWR VPWR sky130_fd_sc_hd__decap_3
X_0718_ net164 add1.prv_st_00\[0\] _0313_ VGND VGND VPWR VPWR _0291_ sky130_fd_sc_hd__mux2_1
XPHY_EDGE_ROW_6_Right_6 VGND VGND VPWR VPWR sky130_fd_sc_hd__decap_3
X_0649_ _0307_ tbck1.select_node\[1\] net173 _0335_ VGND VGND VPWR VPWR _0211_ sky130_fd_sc_hd__o31a_1
XFILLER_15_55 VGND VGND VPWR VPWR sky130_fd_sc_hd__fill_1
XFILLER_25_176 VGND VGND VPWR VPWR sky130_fd_sc_hd__decap_8
Xoutput21 net21 VGND VGND VPWR VPWR data_out[2] sky130_fd_sc_hd__buf_2
XFILLER_0_253 VPWR VGND VPWR VGND sky130_ef_sc_hd__decap_12
XFILLER_39_235 VPWR VGND VPWR VGND sky130_ef_sc_hd__decap_12
XFILLER_54_249 VGND VGND VPWR VPWR sky130_fd_sc_hd__decap_3
XTAP_TAPCELL_ROW_52_406 VGND VPWR sky130_fd_sc_hd__tapvpwrvgnd_1
XFILLER_13_113 VGND VGND VPWR VPWR sky130_fd_sc_hd__decap_4
XFILLER_5_301 VPWR VGND VPWR VGND sky130_ef_sc_hd__decap_12
XTAP_TAPCELL_ROW_8_161 VGND VPWR sky130_fd_sc_hd__tapvpwrvgnd_1
XFILLER_3_69 VPWR VGND VPWR VGND sky130_ef_sc_hd__decap_12
XTAP_TAPCELL_ROW_14_196 VGND VPWR sky130_fd_sc_hd__tapvpwrvgnd_1
X_0983_ mem1.trace\[2\] net41 net42 VGND VGND VPWR VPWR _0553_ sky130_fd_sc_hd__and3_2
XFILLER_8_194 VGND VGND VPWR VPWR sky130_fd_sc_hd__fill_2
XFILLER_50_263 VPWR VGND VPWR VGND sky130_ef_sc_hd__decap_12
XPHY_EDGE_ROW_19_Left_74 VGND VGND VPWR VPWR sky130_fd_sc_hd__decap_3
XFILLER_6_109 VPWR VGND VPWR VGND sky130_ef_sc_hd__decap_12
XFILLER_10_138 VGND VGND VPWR VPWR sky130_fd_sc_hd__fill_2
XFILLER_53_74 VPWR VGND VPWR VGND sky130_ef_sc_hd__decap_12
XTAP_TAPCELL_ROW_11_177 VGND VPWR sky130_fd_sc_hd__tapvpwrvgnd_1
X_1320_ clknet_4_11_0_clk _0202_ VGND VGND VPWR VPWR bck_prv_st_00\[0\] sky130_fd_sc_hd__dfxtp_1
X_1182_ net65 VGND VGND VPWR VPWR _0064_ sky130_fd_sc_hd__inv_2
XTAP_TAPCELL_ROW_19_222 VGND VPWR sky130_fd_sc_hd__tapvpwrvgnd_1
X_1251_ clknet_4_3_0_clk _0263_ _0133_ VGND VGND VPWR VPWR mem1.trellis_diagr\[16\]\[0\]
+ sky130_fd_sc_hd__dfrtp_1
XFILLER_32_263 VPWR VGND VPWR VGND sky130_ef_sc_hd__decap_12
X_0897_ _0491_ _0492_ _0493_ _0494_ VGND VGND VPWR VPWR _0495_ sky130_fd_sc_hd__a31oi_4
X_0966_ _0337_ _0546_ VGND VGND VPWR VPWR _0014_ sky130_fd_sc_hd__nor2_1
XPHY_EDGE_ROW_4_Left_59 VGND VGND VPWR VPWR sky130_fd_sc_hd__decap_3
XFILLER_23_274 VGND VGND VPWR VPWR sky130_fd_sc_hd__decap_6
XFILLER_3_3 VPWR VGND VPWR VGND sky130_ef_sc_hd__decap_12
XFILLER_0_15 VPWR VGND VPWR VGND sky130_ef_sc_hd__decap_12
XFILLER_14_230 VGND VGND VPWR VPWR sky130_fd_sc_hd__decap_3
XTAP_TAPCELL_ROW_16_203 VGND VPWR sky130_fd_sc_hd__tapvpwrvgnd_1
X_0820_ add1.sum_00\[0\] add1.hamd_1\[0\] _0423_ _0421_ VGND VGND VPWR VPWR _0424_
+ sky130_fd_sc_hd__a31o_1
X_0751_ _0360_ net105 VGND VGND VPWR VPWR _0258_ sky130_fd_sc_hd__and2b_1
XFILLER_9_57 VPWR VGND VPWR VGND sky130_ef_sc_hd__decap_12
XFILLER_14_296 VPWR VGND VPWR VGND sky130_ef_sc_hd__decap_12
XFILLER_36_3 VPWR VGND VPWR VGND sky130_ef_sc_hd__decap_12
X_0682_ net119 add1.prv_st_10\[0\] _0350_ VGND VGND VPWR VPWR _0186_ sky130_fd_sc_hd__mux2_1
X_1303_ clknet_4_9_0_clk _0185_ _0027_ VGND VGND VPWR VPWR mem1.trace\[2\] sky130_fd_sc_hd__dfstp_2
X_1165_ net64 VGND VGND VPWR VPWR _0047_ sky130_fd_sc_hd__inv_2
X_1234_ clknet_4_5_0_clk _0247_ _0116_ VGND VGND VPWR VPWR add1.sum_10\[0\] sky130_fd_sc_hd__dfrtp_1
X_1096_ net54 VGND VGND VPWR VPWR _0136_ sky130_fd_sc_hd__inv_2
XTAP_TAPCELL_ROW_22_239 VGND VPWR sky130_fd_sc_hd__tapvpwrvgnd_1
X_0949_ bck_prv_st_01\[0\] bck_prv_st_01\[1\] VGND VGND VPWR VPWR _0537_ sky130_fd_sc_hd__nand2b_1
XTAP_TAPCELL_ROW_30_283 VGND VPWR sky130_fd_sc_hd__tapvpwrvgnd_1
XFILLER_46_174 VGND VGND VPWR VPWR sky130_fd_sc_hd__fill_1
XFILLER_46_141 VGND VGND VPWR VPWR sky130_fd_sc_hd__fill_2
X_0665_ _0341_ net98 VGND VGND VPWR VPWR _0205_ sky130_fd_sc_hd__nor2_1
X_0803_ _0408_ _0409_ _0405_ VGND VGND VPWR VPWR _0411_ sky130_fd_sc_hd__a21o_1
XFILLER_6_292 VPWR VGND VPWR VGND sky130_ef_sc_hd__decap_12
X_0734_ net118 add1.prv_st_01\[0\] _0350_ VGND VGND VPWR VPWR _0275_ sky130_fd_sc_hd__mux2_1
X_0596_ tbck1.select_node\[3\] VGND VGND VPWR VPWR _0309_ sky130_fd_sc_hd__inv_2
XFILLER_29_108 VGND VGND VPWR VPWR sky130_fd_sc_hd__decap_4
X_1148_ net59 VGND VGND VPWR VPWR _0030_ sky130_fd_sc_hd__inv_2
X_1079_ net52 VGND VGND VPWR VPWR _0119_ sky130_fd_sc_hd__inv_2
XFILLER_37_163 VGND VGND VPWR VPWR sky130_fd_sc_hd__decap_4
X_1217_ clknet_4_4_0_clk net7 _0099_ VGND VGND VPWR VPWR br1.data_reg\[15\] sky130_fd_sc_hd__dfrtp_1
Xhold32 c1.count\[1\] VGND VGND VPWR VPWR net97 sky130_fd_sc_hd__dlygate4sd3_1
Xhold21 net26 VGND VGND VPWR VPWR net86 sky130_fd_sc_hd__dlygate4sd3_1
Xhold10 tbck1.sel_bit_out\[6\] VGND VGND VPWR VPWR net75 sky130_fd_sc_hd__dlygate4sd3_1
Xhold65 mem1.trellis_diagr\[25\]\[0\] VGND VGND VPWR VPWR net130 sky130_fd_sc_hd__dlygate4sd3_1
Xhold76 mem1.trellis_diagr\[30\]\[0\] VGND VGND VPWR VPWR net141 sky130_fd_sc_hd__dlygate4sd3_1
Xhold98 mem1.trellis_diagr\[30\]\[1\] VGND VGND VPWR VPWR net163 sky130_fd_sc_hd__dlygate4sd3_1
Xhold87 mem1.trellis_diagr\[14\]\[0\] VGND VGND VPWR VPWR net152 sky130_fd_sc_hd__dlygate4sd3_1
Xhold54 mem1.trellis_diagr\[20\]\[0\] VGND VGND VPWR VPWR net119 sky130_fd_sc_hd__dlygate4sd3_1
Xhold43 mem1.trellis_diagr\[23\]\[0\] VGND VGND VPWR VPWR net108 sky130_fd_sc_hd__dlygate4sd3_1
XFILLER_43_166 VGND VGND VPWR VPWR sky130_fd_sc_hd__fill_2
XFILLER_43_111 VGND VGND VPWR VPWR sky130_fd_sc_hd__fill_1
XTAP_TAPCELL_ROW_41_345 VGND VPWR sky130_fd_sc_hd__tapvpwrvgnd_1
XPHY_EDGE_ROW_7_Left_62 VGND VGND VPWR VPWR sky130_fd_sc_hd__decap_3
XFILLER_20_6 VGND VGND VPWR VPWR sky130_fd_sc_hd__fill_1
XFILLER_34_166 VPWR VGND VPWR VGND sky130_ef_sc_hd__decap_12
X_1002_ net133 _0548_ _0569_ VGND VGND VPWR VPWR _0196_ sky130_fd_sc_hd__o21a_1
X_0717_ _0313_ net81 VGND VGND VPWR VPWR _0292_ sky130_fd_sc_hd__and2b_1
X_0648_ net45 tbck1.in_bit VGND VGND VPWR VPWR _0335_ sky130_fd_sc_hd__or2_1
XFILLER_13_306 VPWR VGND VPWR VGND sky130_ef_sc_hd__decap_12
XFILLER_25_111 VGND VGND VPWR VPWR sky130_fd_sc_hd__fill_1
XPHY_EDGE_ROW_33_Left_88 VGND VGND VPWR VPWR sky130_fd_sc_hd__decap_3
XFILLER_31_99 VGND VGND VPWR VPWR sky130_fd_sc_hd__fill_1
Xclkbuf_4_10_0_clk clknet_0_clk VGND VGND VPWR VPWR clknet_4_10_0_clk sky130_fd_sc_hd__clkbuf_8
XFILLER_31_55 VGND VGND VPWR VPWR sky130_fd_sc_hd__fill_1