*SPEF "ieee 1481-1999"
*DESIGN "viterbi_decoder"
*DATE "07:54:59 Thursday December 04, 2025"
*VENDOR "The OpenROAD Project"
*PROGRAM "OpenROAD"
*VERSION "edf00dff99f6c40d67a30c0e22a8191c5d2ed9d6"
*DESIGN_FLOW "NAME_SCOPE LOCAL" "PIN_CAP NONE"
*DIVIDER /
*DELIMITER :
*BUS_DELIMITER []
*T_UNIT 1 NS
*C_UNIT 1 PF
*R_UNIT 1 OHM
*L_UNIT 1 HENRY

*NAME_MAP
*3 clk
*4 data[0]
*5 data[10]
*6 data[11]
*7 data[12]
*8 data[13]
*9 data[14]
*10 data[15]
*11 data[1]
*12 data[2]
*13 data[3]
*14 data[4]
*15 data[5]
*16 data[6]
*17 data[7]
*18 data[8]
*19 data[9]
*20 data_out[0]
*21 data_out[1]
*22 data_out[2]
*23 data_out[3]
*24 data_out[4]
*25 data_out[5]
*26 data_out[6]
*27 data_out[7]
*28 done_flag
*29 en
*30 rst
*31 _0000_
*32 _0001_
*33 _0002_
*34 _0003_
*35 _0004_
*36 _0005_
*37 _0006_
*38 _0007_
*39 _0008_
*40 _0009_
*41 _0010_
*42 _0011_
*43 _0012_
*44 _0013_
*45 _0014_
*46 _0015_
*47 _0016_
*48 _0017_
*49 _0018_
*50 _0019_
*51 _0020_
*52 _0021_
*53 _0022_
*54 _0023_
*55 _0024_
*56 _0025_
*57 _0026_
*58 _0027_
*59 _0028_
*60 _0029_
*61 _0030_
*62 _0031_
*63 _0032_
*64 _0033_
*65 _0034_
*66 _0035_
*67 _0036_
*68 _0037_
*69 _0038_
*70 _0039_
*71 _0040_
*72 _0041_
*73 _0042_
*74 _0043_
*75 _0044_
*76 _0045_
*77 _0046_
*78 _0047_
*79 _0048_
*80 _0049_
*81 _0050_
*82 _0051_
*83 _0052_
*84 _0053_
*85 _0054_
*86 _0055_
*87 _0056_
*88 _0057_
*89 _0058_
*90 _0059_
*91 _0060_
*92 _0061_
*93 _0062_
*94 _0063_
*95 _0064_
*96 _0065_
*97 _0066_
*98 _0067_
*99 _0068_
*100 _0069_
*101 _0070_
*102 _0071_
*103 _0072_
*104 _0073_
*105 _0074_
*106 _0075_
*107 _0076_
*108 _0077_
*109 _0078_
*110 _0079_
*111 _0080_
*112 _0081_
*113 _0082_
*114 _0083_
*115 _0084_
*116 _0085_
*117 _0086_
*118 _0087_
*119 _0088_
*120 _0089_
*121 _0090_
*122 _0091_
*123 _0092_
*124 _0093_
*125 _0094_
*126 _0095_
*127 _0096_
*128 _0097_
*129 _0098_
*130 _0099_
*131 _0100_
*132 _0101_
*133 _0102_
*134 _0103_
*135 _0104_
*136 _0105_
*137 _0106_
*138 _0107_
*139 _0108_
*140 _0109_
*141 _0110_
*142 _0111_
*143 _0112_
*144 _0113_
*145 _0114_
*146 _0115_
*147 _0116_
*148 _0117_
*149 _0118_
*150 _0119_
*151 _0120_
*152 _0121_
*153 _0122_
*154 _0123_
*155 _0124_
*156 _0125_
*157 _0126_
*158 _0127_
*159 _0128_
*160 _0129_
*161 _0130_
*162 _0131_
*163 _0132_
*164 _0133_
*165 _0134_
*166 _0135_
*167 _0136_
*168 _0137_
*169 _0138_
*170 _0139_
*171 _0140_
*172 _0141_
*173 _0142_
*174 _0143_
*175 _0144_
*176 _0145_
*177 _0146_
*178 _0147_
*179 _0148_
*180 _0149_
*181 _0150_
*182 _0151_
*183 _0152_
*184 _0153_
*185 _0154_
*186 _0155_
*187 _0156_
*188 _0157_
*189 _0158_
*190 _0159_
*191 _0160_
*192 _0161_
*193 _0162_
*194 _0163_
*195 _0164_
*196 _0165_
*197 _0166_
*198 _0167_
*199 _0168_
*200 _0169_
*201 _0170_
*202 _0171_
*203 _0172_
*204 _0173_
*205 _0174_
*206 _0175_
*207 _0176_
*208 _0177_
*209 _0178_
*210 _0179_
*211 _0180_
*212 _0181_
*213 _0182_
*214 _0183_
*215 _0184_
*216 _0185_
*217 _0186_
*218 _0187_
*219 _0188_
*220 _0189_
*221 _0190_
*222 _0191_
*223 _0192_
*224 _0193_
*225 _0194_
*226 _0195_
*227 _0196_
*228 _0197_
*229 _0198_
*230 _0199_
*231 _0200_
*232 _0201_
*233 _0202_
*234 _0203_
*235 _0204_
*236 _0205_
*237 _0206_
*238 _0207_
*239 _0208_
*240 _0209_
*241 _0210_
*242 _0211_
*243 _0212_
*244 _0213_
*245 _0214_
*246 _0215_
*247 _0216_
*248 _0217_
*249 _0218_
*250 _0219_
*251 _0220_
*252 _0221_
*253 _0222_
*254 _0223_
*255 _0224_
*256 _0225_
*257 _0226_
*258 _0227_
*259 _0228_
*260 _0229_
*261 _0230_
*262 _0231_
*263 _0232_
*264 _0233_
*265 _0234_
*266 _0235_
*267 _0236_
*268 _0237_
*269 _0238_
*270 _0239_
*271 _0240_
*272 _0241_
*273 _0242_
*274 _0243_
*275 _0244_
*276 _0245_
*277 _0246_
*278 _0247_
*279 _0248_
*280 _0249_
*281 _0250_
*282 _0251_
*283 _0252_
*284 _0253_
*285 _0254_
*286 _0255_
*287 _0256_
*288 _0257_
*289 _0258_
*290 _0259_
*291 _0260_
*292 _0261_
*293 _0262_
*294 _0263_
*295 _0264_
*296 _0265_
*297 _0266_
*298 _0267_
*299 _0268_
*300 _0269_
*301 _0270_
*302 _0271_
*303 _0272_
*304 _0273_
*305 _0274_
*306 _0275_
*307 _0276_
*308 _0277_
*309 _0278_
*310 _0279_
*311 _0280_
*312 _0281_
*313 _0282_
*314 _0283_
*315 _0284_
*316 _0285_
*317 _0286_
*318 _0287_
*319 _0288_
*320 _0289_
*321 _0290_
*322 _0291_
*323 _0292_
*324 _0293_
*325 _0294_
*326 _0295_
*327 _0296_
*328 _0297_
*329 _0298_
*330 _0299_
*331 _0300_
*332 _0301_
*333 _0302_
*334 _0303_
*335 _0304_
*336 _0305_
*337 _0306_
*338 _0307_
*339 _0308_
*340 _0309_
*341 _0310_
*342 _0311_
*343 _0312_
*344 _0313_
*345 _0314_
*346 _0315_
*347 _0316_
*348 _0317_
*349 _0318_
*350 _0319_
*351 _0320_
*352 _0321_
*353 _0322_
*354 _0323_
*355 _0324_
*356 _0325_
*357 _0326_
*358 _0327_
*359 _0328_
*360 _0329_
*361 _0330_
*362 _0331_
*363 _0332_
*364 _0333_
*365 _0334_
*366 _0335_
*367 _0336_
*368 _0337_
*369 _0338_
*370 _0339_
*371 _0340_
*372 _0341_
*373 _0342_
*374 _0343_
*375 _0344_
*376 _0345_
*377 _0346_
*378 _0347_
*379 _0348_
*380 _0349_
*381 _0350_
*382 _0351_
*383 _0352_
*384 _0353_
*385 _0354_
*386 _0355_
*387 _0356_
*388 _0357_
*389 _0358_
*390 _0359_
*391 _0360_
*392 _0361_
*393 _0362_
*394 _0363_
*395 _0364_
*396 _0365_
*397 _0366_
*398 _0367_
*399 _0368_
*400 _0369_
*401 _0370_
*402 _0371_
*403 _0372_
*404 _0373_
*405 _0374_
*406 _0375_
*407 _0376_
*408 _0377_
*409 _0378_
*410 _0379_
*411 _0380_
*412 _0381_
*413 _0382_
*414 _0383_
*415 _0384_
*416 _0385_
*417 _0386_
*418 _0387_
*419 _0388_
*420 _0389_
*421 _0390_
*422 _0391_
*423 _0392_
*424 _0393_
*425 _0394_
*426 _0395_
*427 _0396_
*428 _0397_
*429 _0398_
*430 _0399_
*431 _0400_
*432 _0401_
*433 _0402_
*434 _0403_
*435 _0404_
*436 _0405_
*437 _0406_
*438 _0407_
*439 _0408_
*440 _0409_
*441 _0410_
*442 _0411_
*443 _0412_
*444 _0413_
*445 _0414_
*446 _0415_
*447 _0416_
*448 _0417_
*449 _0418_
*450 _0419_
*451 _0420_
*452 _0421_
*453 _0422_
*454 _0423_
*455 _0424_
*456 _0425_
*457 _0426_
*458 _0427_
*459 _0428_
*460 _0429_
*461 _0430_
*462 _0431_
*463 _0432_
*464 _0433_
*465 _0434_
*466 _0435_
*467 _0436_
*468 _0437_
*469 _0438_
*470 _0439_
*471 _0440_
*472 _0441_
*473 _0442_
*474 _0443_
*475 _0444_
*476 _0445_
*477 _0446_
*478 _0447_
*479 _0448_
*480 _0449_
*481 _0450_
*482 _0451_
*483 _0452_
*484 _0453_
*485 _0454_
*486 _0455_
*487 _0456_
*488 _0457_
*489 _0458_
*490 _0459_
*491 _0460_
*492 _0461_
*493 _0462_
*494 _0463_
*495 _0464_
*496 _0465_
*497 _0466_
*498 _0467_
*499 _0468_
*500 _0469_
*501 _0470_
*502 _0471_
*503 _0472_
*504 _0473_
*505 _0474_
*506 _0475_
*507 _0476_
*508 _0477_
*509 _0478_
*510 _0479_
*511 _0480_
*512 _0481_
*513 _0482_
*514 _0483_
*515 _0484_
*516 _0485_
*517 _0486_
*518 _0487_
*519 _0488_
*520 _0489_
*521 _0490_
*522 _0491_
*523 _0492_
*524 _0493_
*525 _0494_
*526 _0495_
*527 _0496_
*528 _0497_
*529 _0498_
*530 _0499_
*531 _0500_
*532 _0501_
*533 _0502_
*534 _0503_
*535 _0504_
*536 _0505_
*537 _0506_
*538 _0507_
*539 _0508_
*540 _0509_
*541 _0510_
*542 _0511_
*543 _0512_
*544 _0513_
*545 _0514_
*546 _0515_
*547 _0516_
*548 _0517_
*549 _0518_
*550 _0519_
*551 _0520_
*552 _0521_
*553 _0522_
*554 _0523_
*555 _0524_
*556 _0525_
*557 _0526_
*558 _0527_
*559 _0528_
*560 _0529_
*561 _0530_
*562 _0531_
*563 _0532_
*564 _0533_
*565 _0534_
*566 _0535_
*567 _0536_
*568 _0537_
*569 _0538_
*570 _0539_
*571 _0540_
*572 _0541_
*573 _0542_
*574 _0543_
*575 _0544_
*576 _0545_
*577 _0546_
*578 _0547_
*579 _0548_
*580 _0549_
*581 _0550_
*582 _0551_
*583 _0552_
*584 _0553_
*585 _0554_
*586 _0555_
*587 _0556_
*588 _0557_
*589 _0558_
*590 _0559_
*591 _0560_
*592 _0561_
*593 _0562_
*594 _0563_
*595 _0564_
*596 _0565_
*597 _0566_
*598 _0567_
*599 _0568_
*600 _0569_
*601 _0570_
*602 _0571_
*603 _0572_
*604 _0573_
*605 _0574_
*606 _0575_
*607 _0576_
*608 _0577_
*609 _0578_
*610 _0579_
*611 _0580_
*612 _0581_
*613 _0582_
*614 _0583_
*615 _0584_
*616 _0585_
*617 _0586_
*618 _0587_
*619 _0588_
*620 _0589_
*621 _0590_
*622 _0591_
*623 _0592_
*624 _0593_
*625 add1\.en_add
*626 add1\.hamd_1\[0\]
*627 add1\.hamd_1\[1\]
*628 add1\.hamd_2\[1\]
*629 add1\.hamd_3\[0\]
*630 add1\.hamd_3\[1\]
*631 add1\.hamd_4\[1\]
*632 add1\.prv_st_00\[0\]
*633 add1\.prv_st_01\[0\]
*634 add1\.prv_st_01\[1\]
*635 add1\.prv_st_10\[0\]
*636 add1\.prv_st_11\[0\]
*637 add1\.sum_00\[0\]
*638 add1\.sum_00\[1\]
*639 add1\.sum_00\[2\]
*640 add1\.sum_00\[3\]
*641 add1\.sum_00\[4\]
*642 add1\.sum_01\[0\]
*643 add1\.sum_01\[1\]
*644 add1\.sum_01\[2\]
*645 add1\.sum_01\[3\]
*646 add1\.sum_01\[4\]
*647 add1\.sum_10\[0\]
*648 add1\.sum_10\[1\]
*649 add1\.sum_10\[2\]
*650 add1\.sum_10\[3\]
*651 add1\.sum_10\[4\]
*652 add1\.sum_11\[0\]
*653 add1\.sum_11\[1\]
*654 add1\.sum_11\[2\]
*655 add1\.sum_11\[3\]
*656 add1\.sum_11\[4\]
*657 bck_prv_st_00\[0\]
*658 bck_prv_st_00\[1\]
*659 bck_prv_st_01\[0\]
*660 bck_prv_st_01\[1\]
*661 bck_prv_st_10\[0\]
*662 bck_prv_st_10\[1\]
*663 bck_prv_st_11\[0\]
*664 bck_prv_st_11\[1\]
*665 br1\.count\[1\]
*666 br1\.count\[2\]
*667 br1\.count\[3\]
*668 br1\.data_reg\[0\]
*669 br1\.data_reg\[10\]
*670 br1\.data_reg\[11\]
*671 br1\.data_reg\[12\]
*672 br1\.data_reg\[13\]
*673 br1\.data_reg\[14\]
*674 br1\.data_reg\[15\]
*675 br1\.data_reg\[1\]
*676 br1\.data_reg\[2\]
*677 br1\.data_reg\[3\]
*678 br1\.data_reg\[4\]
*679 br1\.data_reg\[5\]
*680 br1\.data_reg\[6\]
*681 br1\.data_reg\[7\]
*682 br1\.data_reg\[8\]
*683 br1\.data_reg\[9\]
*684 br1\.data_rx\[0\]
*685 br1\.data_rx\[1\]
*686 c1\.count\[0\]
*687 c1\.count\[1\]
*688 c1\.count\[2\]
*689 c1\.count\[3\]
*690 c1\.en_tbck
*691 c1\.state\[0\]
*692 c1\.state\[2\]
*693 c1\.state\[3\]
*694 c1\.state\[4\]
*695 clknet_0_clk
*696 clknet_4_0_0_clk
*697 clknet_4_10_0_clk
*698 clknet_4_11_0_clk
*699 clknet_4_12_0_clk
*700 clknet_4_13_0_clk
*701 clknet_4_14_0_clk
*702 clknet_4_15_0_clk
*703 clknet_4_1_0_clk
*704 clknet_4_2_0_clk
*705 clknet_4_3_0_clk
*706 clknet_4_4_0_clk
*707 clknet_4_5_0_clk
*708 clknet_4_6_0_clk
*709 clknet_4_7_0_clk
*710 clknet_4_8_0_clk
*711 clknet_4_9_0_clk
*712 mem1\.count\[0\]
*713 mem1\.count\[1\]
*714 mem1\.count\[2\]
*715 mem1\.count\[3\]
*716 mem1\.trace\[0\]
*717 mem1\.trace\[1\]
*718 mem1\.trace\[2\]
*719 mem1\.trellis_diagr\[0\]\[0\]
*720 mem1\.trellis_diagr\[0\]\[1\]
*721 mem1\.trellis_diagr\[10\]\[0\]
*722 mem1\.trellis_diagr\[10\]\[1\]
*723 mem1\.trellis_diagr\[11\]\[0\]
*724 mem1\.trellis_diagr\[11\]\[1\]
*725 mem1\.trellis_diagr\[12\]\[0\]
*726 mem1\.trellis_diagr\[12\]\[1\]
*727 mem1\.trellis_diagr\[13\]\[0\]
*728 mem1\.trellis_diagr\[13\]\[1\]
*729 mem1\.trellis_diagr\[14\]\[0\]
*730 mem1\.trellis_diagr\[14\]\[1\]
*731 mem1\.trellis_diagr\[15\]\[0\]
*732 mem1\.trellis_diagr\[15\]\[1\]
*733 mem1\.trellis_diagr\[16\]\[0\]
*734 mem1\.trellis_diagr\[16\]\[1\]
*735 mem1\.trellis_diagr\[17\]\[0\]
*736 mem1\.trellis_diagr\[17\]\[1\]
*737 mem1\.trellis_diagr\[18\]\[0\]
*738 mem1\.trellis_diagr\[18\]\[1\]
*739 mem1\.trellis_diagr\[19\]\[0\]
*740 mem1\.trellis_diagr\[19\]\[1\]
*741 mem1\.trellis_diagr\[1\]\[0\]
*742 mem1\.trellis_diagr\[1\]\[1\]
*743 mem1\.trellis_diagr\[20\]\[0\]
*744 mem1\.trellis_diagr\[20\]\[1\]
*745 mem1\.trellis_diagr\[21\]\[0\]
*746 mem1\.trellis_diagr\[21\]\[1\]
*747 mem1\.trellis_diagr\[22\]\[0\]
*748 mem1\.trellis_diagr\[22\]\[1\]
*749 mem1\.trellis_diagr\[23\]\[0\]
*750 mem1\.trellis_diagr\[23\]\[1\]
*751 mem1\.trellis_diagr\[24\]\[0\]
*752 mem1\.trellis_diagr\[24\]\[1\]
*753 mem1\.trellis_diagr\[25\]\[0\]
*754 mem1\.trellis_diagr\[25\]\[1\]
*755 mem1\.trellis_diagr\[26\]\[0\]
*756 mem1\.trellis_diagr\[26\]\[1\]
*757 mem1\.trellis_diagr\[27\]\[0\]
*758 mem1\.trellis_diagr\[27\]\[1\]
*759 mem1\.trellis_diagr\[28\]\[0\]
*760 mem1\.trellis_diagr\[28\]\[1\]
*761 mem1\.trellis_diagr\[29\]\[0\]
*762 mem1\.trellis_diagr\[29\]\[1\]
*763 mem1\.trellis_diagr\[2\]\[0\]
*764 mem1\.trellis_diagr\[2\]\[1\]
*765 mem1\.trellis_diagr\[30\]\[0\]
*766 mem1\.trellis_diagr\[30\]\[1\]
*767 mem1\.trellis_diagr\[31\]\[0\]
*768 mem1\.trellis_diagr\[31\]\[1\]
*769 mem1\.trellis_diagr\[3\]\[0\]
*770 mem1\.trellis_diagr\[3\]\[1\]
*771 mem1\.trellis_diagr\[4\]\[0\]
*772 mem1\.trellis_diagr\[4\]\[1\]
*773 mem1\.trellis_diagr\[5\]\[0\]
*774 mem1\.trellis_diagr\[5\]\[1\]
*775 mem1\.trellis_diagr\[6\]\[0\]
*776 mem1\.trellis_diagr\[6\]\[1\]
*777 mem1\.trellis_diagr\[7\]\[0\]
*778 mem1\.trellis_diagr\[7\]\[1\]
*779 mem1\.trellis_diagr\[8\]\[0\]
*780 mem1\.trellis_diagr\[8\]\[1\]
*781 mem1\.trellis_diagr\[9\]\[0\]
*782 mem1\.trellis_diagr\[9\]\[1\]
*783 net1
*784 net10
*785 net100
*786 net101
*787 net102
*788 net103
*789 net104
*790 net105
*791 net106
*792 net107
*793 net108
*794 net109
*795 net11
*796 net110
*797 net111
*798 net112
*799 net113
*800 net114
*801 net115
*802 net116
*803 net117
*804 net118
*805 net119
*806 net12
*807 net120
*808 net121
*809 net122
*810 net123
*811 net124
*812 net125
*813 net126
*814 net127
*815 net128
*816 net129
*817 net13
*818 net130
*819 net131
*820 net132
*821 net133
*822 net134
*823 net135
*824 net136
*825 net137
*826 net138
*827 net139
*828 net14
*829 net140
*830 net141
*831 net142
*832 net143
*833 net144
*834 net145
*835 net146
*836 net147
*837 net148
*838 net149
*839 net15
*840 net150
*841 net151
*842 net152
*843 net153
*844 net154
*845 net155
*846 net156
*847 net157
*848 net158
*849 net159
*850 net16
*851 net160
*852 net161
*853 net162
*854 net163
*855 net164
*856 net165
*857 net166
*858 net167
*859 net168
*860 net169
*861 net17
*862 net170
*863 net171
*864 net172
*865 net173
*866 net174
*867 net175
*868 net176
*869 net18
*870 net19
*871 net2
*872 net20
*873 net21
*874 net22
*875 net23
*876 net24
*877 net25
*878 net26
*879 net27
*880 net28
*881 net29
*882 net3
*883 net30
*884 net31
*885 net32
*886 net33
*887 net34
*888 net35
*889 net36
*890 net37
*891 net38
*892 net39
*893 net4
*894 net40
*895 net41
*896 net42
*897 net43
*898 net44
*899 net45
*900 net46
*901 net47
*902 net48
*903 net49
*904 net5
*905 net50
*906 net51
*907 net52
*908 net53
*909 net54
*910 net55
*911 net56
*912 net57
*913 net58
*914 net59
*915 net6
*916 net60
*917 net61
*918 net62
*919 net63
*920 net64
*921 net65
*922 net66
*923 net67
*924 net68
*925 net69
*926 net7
*927 net70
*928 net71
*929 net72
*930 net73
*931 net74
*932 net75
*933 net76
*934 net77
*935 net78
*936 net79
*937 net8
*938 net80
*939 net81
*940 net82
*941 net83
*942 net84
*943 net85
*944 net86
*945 net87
*946 net88
*947 net89
*948 net9
*949 net90
*950 net91
*951 net92
*952 net93
*953 net94
*954 net95
*955 net96
*956 net97
*957 net98
*958 net99
*959 tbck1\.count\[0\]
*960 tbck1\.count\[1\]
*961 tbck1\.count\[2\]
*962 tbck1\.count\[3\]
*963 tbck1\.in_bit
*964 tbck1\.sel_bit_out\[0\]
*965 tbck1\.sel_bit_out\[1\]
*966 tbck1\.sel_bit_out\[2\]
*967 tbck1\.sel_bit_out\[3\]
*968 tbck1\.sel_bit_out\[4\]
*969 tbck1\.sel_bit_out\[5\]
*970 tbck1\.sel_bit_out\[6\]
*971 tbck1\.sel_bit_out\[7\]
*972 tbck1\.select_node\[0\]
*973 tbck1\.select_node\[1\]
*974 tbck1\.select_node\[2\]
*975 tbck1\.select_node\[3\]
*976 FILLER_0_109
*977 FILLER_0_113
*978 FILLER_0_125
*979 FILLER_0_137
*980 FILLER_0_141
*981 FILLER_0_15
*982 FILLER_0_153
*983 FILLER_0_165
*984 FILLER_0_169
*985 FILLER_0_181
*986 FILLER_0_193
*987 FILLER_0_197
*988 FILLER_0_209
*989 FILLER_0_221
*990 FILLER_0_225
*991 FILLER_0_237
*992 FILLER_0_249
*993 FILLER_0_253
*994 FILLER_0_265
*995 FILLER_0_27
*996 FILLER_0_277
*997 FILLER_0_281
*998 FILLER_0_29
*999 FILLER_0_293
*1000 FILLER_0_3
*1001 FILLER_0_305
*1002 FILLER_0_309
*1003 FILLER_0_321
*1004 FILLER_0_41
*1005 FILLER_0_53
*1006 FILLER_0_57
*1007 FILLER_0_69
*1008 FILLER_0_81
*1009 FILLER_0_85
*1010 FILLER_0_97
*1011 FILLER_10_109
*1012 FILLER_10_138
*1013 FILLER_10_15
*1014 FILLER_10_181
*1015 FILLER_10_240
*1016 FILLER_10_250
*1017 FILLER_10_27
*1018 FILLER_10_29
*1019 FILLER_10_299
*1020 FILLER_10_3
*1021 FILLER_10_307
*1022 FILLER_10_309
*1023 FILLER_10_321
*1024 FILLER_10_41
*1025 FILLER_10_53
*1026 FILLER_10_65
*1027 FILLER_10_77
*1028 FILLER_10_83
*1029 FILLER_10_85
*1030 FILLER_10_97
*1031 FILLER_11_105
*1032 FILLER_11_111
*1033 FILLER_11_113
*1034 FILLER_11_125
*1035 FILLER_11_149
*1036 FILLER_11_161
*1037 FILLER_11_167
*1038 FILLER_11_169
*1039 FILLER_11_181
*1040 FILLER_11_193
*1041 FILLER_11_221
*1042 FILLER_11_275
*1043 FILLER_11_303
*1044 FILLER_11_315
*1045 FILLER_11_32
*1046 FILLER_11_323
*1047 FILLER_11_44
*1048 FILLER_11_57
*1049 FILLER_11_6
*1050 FILLER_11_69
*1051 FILLER_11_81
*1052 FILLER_11_93
*1053 FILLER_12_109
*1054 FILLER_12_121
*1055 FILLER_12_138
*1056 FILLER_12_144
*1057 FILLER_12_161
*1058 FILLER_12_173
*1059 FILLER_12_185
*1060 FILLER_12_193
*1061 FILLER_12_197
*1062 FILLER_12_212
*1063 FILLER_12_216
*1064 FILLER_12_225
*1065 FILLER_12_237
*1066 FILLER_12_242
*1067 FILLER_12_250
*1068 FILLER_12_253
*1069 FILLER_12_265
*1070 FILLER_12_27
*1071 FILLER_12_279
*1072 FILLER_12_3
*1073 FILLER_12_305
*1074 FILLER_12_309
*1075 FILLER_12_321
*1076 FILLER_12_49
*1077 FILLER_12_61
*1078 FILLER_12_73
*1079 FILLER_12_81
*1080 FILLER_12_85
*1081 FILLER_12_97
*1082 FILLER_13_105
*1083 FILLER_13_111
*1084 FILLER_13_113
*1085 FILLER_13_117
*1086 FILLER_13_138
*1087 FILLER_13_169
*1088 FILLER_13_180
*1089 FILLER_13_192
*1090 FILLER_13_202
*1091 FILLER_13_214
*1092 FILLER_13_222
*1093 FILLER_13_225
*1094 FILLER_13_237
*1095 FILLER_13_249
*1096 FILLER_13_261
*1097 FILLER_13_269
*1098 FILLER_13_277
*1099 FILLER_13_281
*1100 FILLER_13_285
*1101 FILLER_13_294
*1102 FILLER_13_306
*1103 FILLER_13_318
*1104 FILLER_13_324
*1105 FILLER_13_37
*1106 FILLER_13_49
*1107 FILLER_13_55
*1108 FILLER_13_57
*1109 FILLER_13_6
*1110 FILLER_13_69
*1111 FILLER_13_81
*1112 FILLER_13_93
*1113 FILLER_14_109
*1114 FILLER_14_121
*1115 FILLER_14_130
*1116 FILLER_14_138
*1117 FILLER_14_149
*1118 FILLER_14_157
*1119 FILLER_14_189
*1120 FILLER_14_195
*1121 FILLER_14_197
*1122 FILLER_14_230
*1123 FILLER_14_242
*1124 FILLER_14_260
*1125 FILLER_14_264
*1126 FILLER_14_270
*1127 FILLER_14_278
*1128 FILLER_14_286
*1129 FILLER_14_29
*1130 FILLER_14_296
*1131 FILLER_14_3
*1132 FILLER_14_309
*1133 FILLER_14_321
*1134 FILLER_14_41
*1135 FILLER_14_53
*1136 FILLER_14_65
*1137 FILLER_14_77
*1138 FILLER_14_83
*1139 FILLER_14_85
*1140 FILLER_14_97
*1141 FILLER_15_105
*1142 FILLER_15_111
*1143 FILLER_15_113
*1144 FILLER_15_125
*1145 FILLER_15_137
*1146 FILLER_15_14
*1147 FILLER_15_145
*1148 FILLER_15_18
*1149 FILLER_15_184
*1150 FILLER_15_202
*1151 FILLER_15_225
*1152 FILLER_15_273
*1153 FILLER_15_281
*1154 FILLER_15_285
*1155 FILLER_15_293
*1156 FILLER_15_315
*1157 FILLER_15_323
*1158 FILLER_15_43
*1159 FILLER_15_55
*1160 FILLER_15_57
*1161 FILLER_15_6
*1162 FILLER_15_69
*1163 FILLER_15_81
*1164 FILLER_15_93
*1165 FILLER_16_109
*1166 FILLER_16_115
*1167 FILLER_16_136
*1168 FILLER_16_153
*1169 FILLER_16_18
*1170 FILLER_16_197
*1171 FILLER_16_238
*1172 FILLER_16_247
*1173 FILLER_16_251
*1174 FILLER_16_257
*1175 FILLER_16_26
*1176 FILLER_16_282
*1177 FILLER_16_29
*1178 FILLER_16_312
*1179 FILLER_16_324
*1180 FILLER_16_41
*1181 FILLER_16_6
*1182 FILLER_16_68
*1183 FILLER_16_80
*1184 FILLER_16_85
*1185 FILLER_16_97
*1186 FILLER_17_106
*1187 FILLER_17_113
*1188 FILLER_17_117
*1189 FILLER_17_155
*1190 FILLER_17_167
*1191 FILLER_17_169
*1192 FILLER_17_195
*1193 FILLER_17_225
*1194 FILLER_17_262
*1195 FILLER_17_289
*1196 FILLER_17_316
*1197 FILLER_17_324
*1198 FILLER_17_42
*1199 FILLER_17_70
*1200 FILLER_17_82
*1201 FILLER_17_9
*1202 FILLER_17_94
*1203 FILLER_18_103
*1204 FILLER_18_128
*1205 FILLER_18_141
*1206 FILLER_18_155
*1207 FILLER_18_167
*1208 FILLER_18_179
*1209 FILLER_18_194
*1210 FILLER_18_197
*1211 FILLER_18_231
*1212 FILLER_18_235
*1213 FILLER_18_242
*1214 FILLER_18_250
*1215 FILLER_18_27
*1216 FILLER_18_29
*1217 FILLER_18_293
*1218 FILLER_18_3
*1219 FILLER_18_302
*1220 FILLER_18_317
*1221 FILLER_18_69
*1222 FILLER_18_81
*1223 FILLER_18_85
*1224 FILLER_18_97
*1225 FILLER_19_102
*1226 FILLER_19_110
*1227 FILLER_19_113
*1228 FILLER_19_125
*1229 FILLER_19_129
*1230 FILLER_19_139
*1231 FILLER_19_150
*1232 FILLER_19_166
*1233 FILLER_19_169
*1234 FILLER_19_181
*1235 FILLER_19_190
*1236 FILLER_19_200
*1237 FILLER_19_212
*1238 FILLER_19_225
*1239 FILLER_19_237
*1240 FILLER_19_249
*1241 FILLER_19_256
*1242 FILLER_19_269
*1243 FILLER_19_277
*1244 FILLER_19_281
*1245 FILLER_19_293
*1246 FILLER_19_3
*1247 FILLER_19_30
*1248 FILLER_19_318
*1249 FILLER_19_324
*1250 FILLER_19_42
*1251 FILLER_19_78
*1252 FILLER_19_90
*1253 FILLER_1_105
*1254 FILLER_1_111
*1255 FILLER_1_113
*1256 FILLER_1_125
*1257 FILLER_1_137
*1258 FILLER_1_149
*1259 FILLER_1_15
*1260 FILLER_1_161
*1261 FILLER_1_167
*1262 FILLER_1_169
*1263 FILLER_1_177
*1264 FILLER_1_181
*1265 FILLER_1_193
*1266 FILLER_1_205
*1267 FILLER_1_217
*1268 FILLER_1_228
*1269 FILLER_1_240
*1270 FILLER_1_263
*1271 FILLER_1_27
*1272 FILLER_1_275
*1273 FILLER_1_279
*1274 FILLER_1_281
*1275 FILLER_1_293
*1276 FILLER_1_3
*1277 FILLER_1_305
*1278 FILLER_1_317
*1279 FILLER_1_39
*1280 FILLER_1_51
*1281 FILLER_1_55
*1282 FILLER_1_57
*1283 FILLER_1_69
*1284 FILLER_1_81
*1285 FILLER_1_93
*1286 FILLER_20_109
*1287 FILLER_20_121
*1288 FILLER_20_133
*1289 FILLER_20_141
*1290 FILLER_20_180
*1291 FILLER_20_192
*1292 FILLER_20_197
*1293 FILLER_20_209
*1294 FILLER_20_221
*1295 FILLER_20_229
*1296 FILLER_20_257
*1297 FILLER_20_27
*1298 FILLER_20_272
*1299 FILLER_20_284
*1300 FILLER_20_29
*1301 FILLER_20_302
*1302 FILLER_20_317
*1303 FILLER_20_41
*1304 FILLER_20_59
*1305 FILLER_20_6
*1306 FILLER_20_64
*1307 FILLER_20_76
*1308 FILLER_20_85
*1309 FILLER_20_97
*1310 FILLER_21_107
*1311 FILLER_21_113
*1312 FILLER_21_125
*1313 FILLER_21_183
*1314 FILLER_21_197
*1315 FILLER_21_21
*1316 FILLER_21_214
*1317 FILLER_21_222
*1318 FILLER_21_232
*1319 FILLER_21_265
*1320 FILLER_21_269
*1321 FILLER_21_276
*1322 FILLER_21_281
*1323 FILLER_21_317
*1324 FILLER_21_33
*1325 FILLER_21_45
*1326 FILLER_21_57
*1327 FILLER_21_69
*1328 FILLER_21_80
*1329 FILLER_21_9
*1330 FILLER_21_92
*1331 FILLER_22_137
*1332 FILLER_22_169
*1333 FILLER_22_175
*1334 FILLER_22_251
*1335 FILLER_22_264
*1336 FILLER_22_27
*1337 FILLER_22_29
*1338 FILLER_22_294
*1339 FILLER_22_3
*1340 FILLER_22_305
*1341 FILLER_22_320
*1342 FILLER_22_324
*1343 FILLER_22_41
*1344 FILLER_22_53
*1345 FILLER_22_61
*1346 FILLER_22_85
*1347 FILLER_22_93
*1348 FILLER_23_110
*1349 FILLER_23_121
*1350 FILLER_23_133
*1351 FILLER_23_14
*1352 FILLER_23_141
*1353 FILLER_23_158
*1354 FILLER_23_166
*1355 FILLER_23_169
*1356 FILLER_23_18
*1357 FILLER_23_181
*1358 FILLER_23_219
*1359 FILLER_23_225
*1360 FILLER_23_267
*1361 FILLER_23_274
*1362 FILLER_23_281
*1363 FILLER_23_320
*1364 FILLER_23_324
*1365 FILLER_23_42
*1366 FILLER_23_54
*1367 FILLER_23_57
*1368 FILLER_23_6
*1369 FILLER_23_65
*1370 FILLER_23_86
*1371 FILLER_23_98
*1372 FILLER_24_123
*1373 FILLER_24_135
*1374 FILLER_24_139
*1375 FILLER_24_141
*1376 FILLER_24_147
*1377 FILLER_24_151
*1378 FILLER_24_163
*1379 FILLER_24_175
*1380 FILLER_24_240
*1381 FILLER_24_251
*1382 FILLER_24_262
*1383 FILLER_24_270
*1384 FILLER_24_281
*1385 FILLER_24_307
*1386 FILLER_24_324
*1387 FILLER_24_50
*1388 FILLER_24_58
*1389 FILLER_24_6
*1390 FILLER_24_78
*1391 FILLER_24_82
*1392 FILLER_24_85
*1393 FILLER_24_93
*1394 FILLER_25_111
*1395 FILLER_25_113
*1396 FILLER_25_128
*1397 FILLER_25_140
*1398 FILLER_25_176
*1399 FILLER_25_184
*1400 FILLER_25_204
*1401 FILLER_25_209
*1402 FILLER_25_221
*1403 FILLER_25_225
*1404 FILLER_25_236
*1405 FILLER_25_252
*1406 FILLER_25_281
*1407 FILLER_25_298
*1408 FILLER_25_3
*1409 FILLER_25_30
*1410 FILLER_25_310
*1411 FILLER_25_322
*1412 FILLER_25_42
*1413 FILLER_25_50
*1414 FILLER_25_57
*1415 FILLER_25_65
*1416 FILLER_25_69
*1417 FILLER_25_73
*1418 FILLER_25_82
*1419 FILLER_25_94
*1420 FILLER_26_132
*1421 FILLER_26_14
*1422 FILLER_26_141
*1423 FILLER_26_153
*1424 FILLER_26_174
*1425 FILLER_26_214
*1426 FILLER_26_226
*1427 FILLER_26_238
*1428 FILLER_26_25
*1429 FILLER_26_250
*1430 FILLER_26_257
*1431 FILLER_26_269
*1432 FILLER_26_276
*1433 FILLER_26_29
*1434 FILLER_26_291
*1435 FILLER_26_300
*1436 FILLER_26_309
*1437 FILLER_26_321
*1438 FILLER_26_42
*1439 FILLER_26_6
*1440 FILLER_26_77
*1441 FILLER_26_83
*1442 FILLER_26_85
*1443 FILLER_26_97
*1444 FILLER_27_107
*1445 FILLER_27_111
*1446 FILLER_27_113
*1447 FILLER_27_147
*1448 FILLER_27_18
*1449 FILLER_27_189
*1450 FILLER_27_193
*1451 FILLER_27_200
*1452 FILLER_27_212
*1453 FILLER_27_220
*1454 FILLER_27_225
*1455 FILLER_27_229
*1456 FILLER_27_239
*1457 FILLER_27_252
*1458 FILLER_27_260
*1459 FILLER_27_276
*1460 FILLER_27_281
*1461 FILLER_27_293
*1462 FILLER_27_30
*1463 FILLER_27_301
*1464 FILLER_27_323
*1465 FILLER_27_42
*1466 FILLER_27_54
*1467 FILLER_27_57
*1468 FILLER_27_6
*1469 FILLER_27_83
*1470 FILLER_27_95
*1471 FILLER_28_109
*1472 FILLER_28_117
*1473 FILLER_28_139
*1474 FILLER_28_149
*1475 FILLER_28_155
*1476 FILLER_28_168
*1477 FILLER_28_179
*1478 FILLER_28_191
*1479 FILLER_28_195
*1480 FILLER_28_197
*1481 FILLER_28_209
*1482 FILLER_28_213
*1483 FILLER_28_250
*1484 FILLER_28_261
*1485 FILLER_28_27
*1486 FILLER_28_273
*1487 FILLER_28_285
*1488 FILLER_28_297
*1489 FILLER_28_3
*1490 FILLER_28_305
*1491 FILLER_28_309
*1492 FILLER_28_50
*1493 FILLER_28_62
*1494 FILLER_28_70
*1495 FILLER_28_85
*1496 FILLER_28_97
*1497 FILLER_29_108
*1498 FILLER_29_113
*1499 FILLER_29_121
*1500 FILLER_29_147
*1501 FILLER_29_159
*1502 FILLER_29_167
*1503 FILLER_29_173
*1504 FILLER_29_191
*1505 FILLER_29_203
*1506 FILLER_29_261
*1507 FILLER_29_272
*1508 FILLER_29_276
*1509 FILLER_29_315
*1510 FILLER_29_33
*1511 FILLER_29_45
*1512 FILLER_29_53
*1513 FILLER_29_57
*1514 FILLER_29_69
*1515 FILLER_29_82
*1516 FILLER_29_9
*1517 FILLER_29_96
*1518 FILLER_2_109
*1519 FILLER_2_121
*1520 FILLER_2_133
*1521 FILLER_2_139
*1522 FILLER_2_141
*1523 FILLER_2_15
*1524 FILLER_2_153
*1525 FILLER_2_165
*1526 FILLER_2_191
*1527 FILLER_2_195
*1528 FILLER_2_237
*1529 FILLER_2_27
*1530 FILLER_2_281
*1531 FILLER_2_29
*1532 FILLER_2_293
*1533 FILLER_2_3
*1534 FILLER_2_305
*1535 FILLER_2_309
*1536 FILLER_2_321
*1537 FILLER_2_41
*1538 FILLER_2_53
*1539 FILLER_2_65
*1540 FILLER_2_77
*1541 FILLER_2_83
*1542 FILLER_2_85
*1543 FILLER_2_97
*1544 FILLER_30_104
*1545 FILLER_30_116
*1546 FILLER_30_128
*1547 FILLER_30_134
*1548 FILLER_30_141
*1549 FILLER_30_153
*1550 FILLER_30_237
*1551 FILLER_30_245
*1552 FILLER_30_251
*1553 FILLER_30_253
*1554 FILLER_30_27
*1555 FILLER_30_29
*1556 FILLER_30_3
*1557 FILLER_30_301
*1558 FILLER_30_41
*1559 FILLER_30_53
*1560 FILLER_30_65
*1561 FILLER_30_77
*1562 FILLER_30_92
*1563 FILLER_30_96
*1564 FILLER_31_125
*1565 FILLER_31_137
*1566 FILLER_31_149
*1567 FILLER_31_161
*1568 FILLER_31_167
*1569 FILLER_31_181
*1570 FILLER_31_187
*1571 FILLER_31_214
*1572 FILLER_31_222
*1573 FILLER_31_246
*1574 FILLER_31_258
*1575 FILLER_31_264
*1576 FILLER_31_27
*1577 FILLER_31_274
*1578 FILLER_31_278
*1579 FILLER_31_289
*1580 FILLER_31_3
*1581 FILLER_31_301
*1582 FILLER_31_323
*1583 FILLER_31_39
*1584 FILLER_31_51
*1585 FILLER_31_55
*1586 FILLER_31_57
*1587 FILLER_31_61
*1588 FILLER_31_69
*1589 FILLER_31_81
*1590 FILLER_31_93
*1591 FILLER_31_99
*1592 FILLER_32_109
*1593 FILLER_32_121
*1594 FILLER_32_125
*1595 FILLER_32_133
*1596 FILLER_32_141
*1597 FILLER_32_153
*1598 FILLER_32_18
*1599 FILLER_32_189
*1600 FILLER_32_195
*1601 FILLER_32_214
*1602 FILLER_32_226
*1603 FILLER_32_238
*1604 FILLER_32_250
*1605 FILLER_32_253
*1606 FILLER_32_26
*1607 FILLER_32_263
*1608 FILLER_32_275
*1609 FILLER_32_287
*1610 FILLER_32_29
*1611 FILLER_32_291
*1612 FILLER_32_44
*1613 FILLER_32_52
*1614 FILLER_32_6
*1615 FILLER_32_62
*1616 FILLER_32_74
*1617 FILLER_32_82
*1618 FILLER_32_85
*1619 FILLER_32_97
*1620 FILLER_33_106
*1621 FILLER_33_111
*1622 FILLER_33_113
*1623 FILLER_33_121
*1624 FILLER_33_127
*1625 FILLER_33_142
*1626 FILLER_33_15
*1627 FILLER_33_154
*1628 FILLER_33_166
*1629 FILLER_33_169
*1630 FILLER_33_181
*1631 FILLER_33_19
*1632 FILLER_33_193
*1633 FILLER_33_205
*1634 FILLER_33_217
*1635 FILLER_33_223
*1636 FILLER_33_225
*1637 FILLER_33_233
*1638 FILLER_33_279
*1639 FILLER_33_28
*1640 FILLER_33_281
*1641 FILLER_33_289
*1642 FILLER_33_299
*1643 FILLER_33_3
*1644 FILLER_33_323
*1645 FILLER_33_57
*1646 FILLER_33_90
*1647 FILLER_34_154
*1648 FILLER_34_166
*1649 FILLER_34_178
*1650 FILLER_34_186
*1651 FILLER_34_206
*1652 FILLER_34_212
*1653 FILLER_34_218
*1654 FILLER_34_230
*1655 FILLER_34_276
*1656 FILLER_34_282
*1657 FILLER_34_29
*1658 FILLER_34_3
*1659 FILLER_34_306
*1660 FILLER_34_62
*1661 FILLER_34_7
*1662 FILLER_34_77
*1663 FILLER_34_91
*1664 FILLER_34_99
*1665 FILLER_35_101
*1666 FILLER_35_109
*1667 FILLER_35_124
*1668 FILLER_35_130
*1669 FILLER_35_162
*1670 FILLER_35_169
*1671 FILLER_35_178
*1672 FILLER_35_217
*1673 FILLER_35_248
*1674 FILLER_35_279
*1675 FILLER_35_281
*1676 FILLER_35_287
*1677 FILLER_35_297
*1678 FILLER_35_3
*1679 FILLER_35_306
*1680 FILLER_35_318
*1681 FILLER_35_324
*1682 FILLER_35_39
*1683 FILLER_35_71
*1684 FILLER_35_93
*1685 FILLER_36_127
*1686 FILLER_36_139
*1687 FILLER_36_141
*1688 FILLER_36_15
*1689 FILLER_36_153
*1690 FILLER_36_194
*1691 FILLER_36_209
*1692 FILLER_36_247
*1693 FILLER_36_251
*1694 FILLER_36_253
*1695 FILLER_36_259
*1696 FILLER_36_26
*1697 FILLER_36_29
*1698 FILLER_36_292
*1699 FILLER_36_3
*1700 FILLER_36_300
*1701 FILLER_36_318
*1702 FILLER_36_55
*1703 FILLER_36_67
*1704 FILLER_36_79
*1705 FILLER_36_90
*1706 FILLER_37_127
*1707 FILLER_37_15
*1708 FILLER_37_151
*1709 FILLER_37_163
*1710 FILLER_37_167
*1711 FILLER_37_169
*1712 FILLER_37_198
*1713 FILLER_37_221
*1714 FILLER_37_247
*1715 FILLER_37_255
*1716 FILLER_37_268
*1717 FILLER_37_27
*1718 FILLER_37_3
*1719 FILLER_37_302
*1720 FILLER_37_323
*1721 FILLER_37_44
*1722 FILLER_37_49
*1723 FILLER_37_55
*1724 FILLER_37_57
*1725 FILLER_37_65
*1726 FILLER_38_120
*1727 FILLER_38_126
*1728 FILLER_38_138
*1729 FILLER_38_141
*1730 FILLER_38_146
*1731 FILLER_38_15
*1732 FILLER_38_158
*1733 FILLER_38_170
*1734 FILLER_38_174
*1735 FILLER_38_233
*1736 FILLER_38_245
*1737 FILLER_38_251
*1738 FILLER_38_253
*1739 FILLER_38_265
*1740 FILLER_38_27
*1741 FILLER_38_273
*1742 FILLER_38_279
*1743 FILLER_38_285
*1744 FILLER_38_29
*1745 FILLER_38_3
*1746 FILLER_38_35
*1747 FILLER_38_57
*1748 FILLER_38_69
*1749 FILLER_38_77
*1750 FILLER_38_82
*1751 FILLER_38_90
*1752 FILLER_38_96
*1753 FILLER_39_105
*1754 FILLER_39_110
*1755 FILLER_39_133
*1756 FILLER_39_144
*1757 FILLER_39_15
*1758 FILLER_39_156
*1759 FILLER_39_165
*1760 FILLER_39_169
*1761 FILLER_39_184
*1762 FILLER_39_188
*1763 FILLER_39_200